
  EPA STORM WATER MANAGEMENT MODEL - VERSION 5.0 (Build 5.0.021)
  --------------------------------------------------------------

  
  ERROR 205: invalid keyword MAX_TRIALS at line 34 of [OPTION] section:
  MAX_TRIALS
  
  ERROR 205: invalid keyword HEAD_TOLERANCE at line 35 of [OPTION] section:
  HEAD_TOLERANCE
  
  ERROR 205: invalid keyword SYS_FLOW_TOL at line 36 of [OPTION] section:
  SYS_FLOW_TOL
  
  ERROR 205: invalid keyword LAT_FLOW_TOL at line 37 of [OPTION] section:
  LAT_FLOW_TOL